/*--------------------------------*- C++ -*----------------------------------*\
| =========                 |                                                 |
| \\      /  F ield         | OpenFOAM: The Open Source CFD Toolbox           |
|  \\    /   O peration     | Version:  2.3.1                                 |
|   \\  /    A nd           | Web:      www.OpenFOAM.org                      |
|    \\/     M anipulation  |                                                 |
\*---------------------------------------------------------------------------*/
FoamFile
{
    version     2.0;
    format      ascii;
    class       dictionary;
    location    "system";
    object      controlDict;
}
// * * * * * * * * * * * * * * * * * * * * * * * * * * * * * * * * * * * * * //

applicationClass	rhoCentralFoam;
startFrom        	latestTime;
endTime			0.05;
stopAt 			endTime;
deltaT			1e-7;
writeControl    	adjustableRunTime;
writeInterval		0.0001;
cycleWrite      	0;
writeFormat     	binary;
writePrecision		6;
writeCompression 	uncompressed;
timeFormat      	general;
timePrecision   	6;
runTimeModifiable	yes;
adjustTimeStep		yes;
maxCo			1;
maxDeltaT		1;

// ************************************************************************* //
