/*--------------------------------*- C++ -*----------------------------------*\
| =========                 |                                                 |
| \\      /  F ield         | OpenFOAM: The Open Source CFD Toolbox           |
|  \\    /   O peration     | Version:  1.5-dev                               |
|   \\  /    A nd           | Revision: exported                              |
|    \\/     M anipulation  | Web:      http://www.OpenFOAM.org               |
\*---------------------------------------------------------------------------*/
FoamFile
{
    version     2.0;
    format      ascii;
    class       volScalarField;
    location    "0";
    object      p;
}
// * * * * * * * * * * * * * * * * * * * * * * * * * * * * * * * * * * * * * //

dimensions      [0 2 -2 0 0 0 0];

internalField   uniform 0;

boundaryField
{
    duct
    {
        type            zeroGradient;
    }
    baffle
    {
   	type            fixedJump; 
    	patchType       cyclic;
        jump            uniform 771;
    	value           uniform 771;
    }
    baffleother
    {
    	type            fixedJump; 
	patchType       cyclic; 
	value           $internalField;
    }
    inlet {	type	zeroGradient; }
    outlet
    {
        type fixedValue;
        value uniform 0;
    }
    tunnel { type zeroGradient; }
    wedge0{ type wedge; }
    wedge1{ type wedge; }
}


// ************************************************************************* //
