/*--------------------------------*- C++ -*----------------------------------*\
| =========                 |                                                 |
| \\      /  F ield         | OpenFOAM: The Open Source CFD Toolbox           |
|  \\    /   O peration     | Version:  2.3.1                                 |
|   \\  /    A nd           | Web:      www.OpenFOAM.org                      |
|    \\/     M anipulation  |                                                 |
\*---------------------------------------------------------------------------*/
FoamFile
{
    version     2.0;
    format      ascii;
    class       polyBoundaryMesh;
    location    "constant/polyMesh";
    object      boundary;
}
// * * * * * * * * * * * * * * * * * * * * * * * * * * * * * * * * * * * * * //

7
(
    rotor
    {
        type            wall;
        inGroups        1(wall);
        nFaces          0;
        startFace       1460;
    }
    stator
    {
        type            wall;
        inGroups        1(wall);
        nFaces          96;
        startFace       1460;
    }
    AMI1
    {
        type            cyclicAMI;
        inGroups        1(cyclicAMI);
        nFaces          0;
        startFace       1556;
        matchTolerance  0.0001;
        transform       noOrdering;
        neighbourPatch  AMI2;
    }
    AMI2
    {
        type            cyclicAMI;
        inGroups        1(cyclicAMI);
        nFaces          48;
        startFace       1556;
        matchTolerance  0.0001;
        transform       noOrdering;
        neighbourPatch  AMI1;
    }
    front
    {
        type            empty;
        inGroups        1(empty);
        nFaces          768;
        startFace       1604;
    }
    back
    {
        type            empty;
        inGroups        1(empty);
        nFaces          768;
        startFace       2372;
    }
    procBoundary0to1
    {
        type            processor;
        inGroups        1(processor);
        nFaces          8;
        startFace       3140;
        matchTolerance  0.0001;
        transform       unknown;
        myProcNo        0;
        neighbProcNo    1;
    }
)

// ************************************************************************* //
