/*--------------------------------*- C++ -*----------------------------------*\
| =========                 |                                                 |
| \\      /  F ield         | OpenFOAM: The Open Source CFD Toolbox           |
|  \\    /   O peration     | Version:  2.3.1                                 |
|   \\  /    A nd           | Web:      www.OpenFOAM.org                      |
|    \\/     M anipulation  |                                                 |
\*---------------------------------------------------------------------------*/
FoamFile
{
    version     2.0;
    format      ascii;
    class       polyBoundaryMesh;
    location    "constant/polyMesh";
    object      boundary;
}
// * * * * * * * * * * * * * * * * * * * * * * * * * * * * * * * * * * * * * //

6
(
    frontAndBack
    {
        type            empty;
        physicalType    empty;
        inGroups        1(empty);
        nFaces          193560;
        startFace       148215;
    }
    wing_baffle
    {
        type            wall;
        physicalType    wall;
        inGroups        1(wall);
        nFaces          1350;
        startFace       341775;
    }
    outlet
    {
        type            patch;
        physicalType    patch;
        nFaces          20;
        startFace       343125;
    }
    tunnel
    {
        type            patch;
        physicalType    patch;
        nFaces          40;
        startFace       343145;
    }
    inlet
    {
        type            patch;
        physicalType    patch;
        nFaces          20;
        startFace       343185;
    }
    wing
    {
        type            wall;
        physicalType    wall;
        inGroups        1(wall);
        nFaces          580;
        startFace       343205;
    }
)

// ************************************************************************* //
