/*--------------------------------*- C++ -*----------------------------------*\
| =========                 |                                                 |
| \\      /  F ield         | OpenFOAM: The Open Source CFD Toolbox           |
|  \\    /   O peration     | Version:  2.3.1                                 |
|   \\  /    A nd           | Web:      www.OpenFOAM.org                      |
|    \\/     M anipulation  |                                                 |
\*---------------------------------------------------------------------------*/
FoamFile
{
    version     2.0;
    format      ascii;
    class       volVectorField;
    object      p;
}
// * * * * * * * * * * * * * * * * * * * * * * * * * * * * * * * * * * * * * //

dimensions          [ 1 -1 -2 0 0 0 0 ];

internalField       uniform 0;

boundaryField
{
    symmetry
    {
        type            symmetryPlane;
    }
    symmetry2
    {
        type                calculated;
        value               uniform 0;
    }
    plain_surface
    {
        type                calculated;
        value               uniform 0;
    }
    fixed_hole
    {
        type                calculated;
        value               uniform 0;
    }
    load_holes
    {
        type                calculated;
        value               uniform 0;
    }
}

// ************************************************************************* //
