/*--------------------------------*- C++ -*----------------------------------*\
| =========                 |                                                 |
| \\      /  F ield         | OpenFOAM: The Open Source CFD Toolbox           |
|  \\    /   O peration     | Version:  2.3.1                                 |
|   \\  /    A nd           | Web:      www.OpenFOAM.org                      |
|    \\/     M anipulation  |                                                 |
\*---------------------------------------------------------------------------*/
FoamFile
{
    version     2.0;
    format      ascii;
    class       volScalarField;
    location    "0";
    object      k;
}
// * * * * * * * * * * * * * * * * * * * * * * * * * * * * * * * * * * * * * //

dimensions      [0 2 -2 0 0 0 0];

internalField   uniform 0.00325;

boundaryField
{
    frontAndBack
    {
        type            empty;
    }
    wing_baffle
    {
        type            kqRWallFunction;
        value           uniform 0;
    }
    outlet
    {
        type            inletOutlet;
        inletValue      uniform 0.00325;
        value           uniform 0.00325;
    }
    tunnel
    {
        type            slip;
    }
    inlet
    {
        type            fixedValue;
        value           uniform 0.00325;
    }
    wing
    {
        type            kqRWallFunction;
        value           uniform 0;
    }
}


// ************************************************************************* //
