/*--------------------------------*- C++ -*----------------------------------*\
| =========                 |                                                 |
| \\      /  F ield         | OpenFOAM: The Open Source CFD Toolbox           |
|  \\    /   O peration     | Version:  2.3.1                                 |
|   \\  /    A nd           | Web:      www.OpenFOAM.org                      |
|    \\/     M anipulation  |                                                 |
\*---------------------------------------------------------------------------*/
FoamFile
{
    version     2.0;
    format      ascii;
    class       dictionary;
    location    "system";
    object      controlDict;
}
// * * * * * * * * * * * * * * * * * * * * * * * * * * * * * * * * * * * * * //

applicationClass	pimpleFoam;
startFrom        	latestTime;
endTime			1;
stopAt 			endTime;
deltaT			1;
writeControl    	adjustableRunTime;
writeInterval		0.01;
cycleWrite      	0;
writeFormat     	ascii;
writePrecision		6;
writeCompression 	uncompressed;
timeFormat      	general;
timePrecision   	6;
runTimeModifiable	yes;
adjustTimeStep		yes;
maxCo			1;
maxDeltaT		1;


//Added for force output.
libs
(
    "libforces.so"
);

functions
{
    airfoil
    {
        patches             (wing wing_baffle);
        CofR                (0 0 0);
        outputControl 		timeStep;
        outputInterval 		5;
        type 				forces;
        pName 				p;
        UName 				U;
        rhoName 			rhoInf;
        rhoInf 				1.18;
        log 				true;
    }
}

// ************************************************************************* //
