/*--------------------------------*- C++ -*----------------------------------*\
| =========                 |                                                 |
| \\      /  F ield         | OpenFOAM: The Open Source CFD Toolbox           |
|  \\    /   O peration     | Version:  2.3.1                                 |
|   \\  /    A nd           | Web:      www.OpenFOAM.org                      |
|    \\/     M anipulation  |                                                 |
\*---------------------------------------------------------------------------*/
FoamFile
{
    version     2.0;
    format      ascii;
    class       volVectorField;
    object      D;
}
// * * * * * * * * * * * * * * * * * * * * * * * * * * * * * * * * * * * * * //

dimensions      [0 1 0 0 0 0 0];

internalField   uniform (0 0 0);

boundaryField
{
    frontAndBack
    {
        type            empty;
    }
    left
    {
        type            fixedValue;
	    value		    uniform ( 0 0 0 );
    }
    topAndBottom
    {
        type            tractionDisplacement;
        traction        uniform ( 0 0 0 );
        pressure        uniform 0;
        value           uniform (0 0 0);
    }
    right
    {
        type            tractionDisplacement;
        //traction        uniform ( 0 50000 0 );
        traction        uniform ( 0 62500 0 );
        pressure        uniform 0;
        value           uniform (0 0 0);
    }
}

// ************************************************************************* //
