/*--------------------------------*- C++ -*----------------------------------*\
| =========                 |                                                 |
| \\      /  F ield         | OpenFOAM: The Open Source CFD Toolbox           |
|  \\    /   O peration     | Version:  1.5-dev                               |
|   \\  /    A nd           | Revision: exported                              |
|    \\/     M anipulation  | Web:      http://www.OpenFOAM.org               |
\*---------------------------------------------------------------------------*/
FoamFile
{
    version     2.0;
    format      ascii;
    class       volScalarField;
    location    "0";
    object      nut;
}
// * * * * * * * * * * * * * * * * * * * * * * * * * * * * * * * * * * * * * //

dimensions      [0 2 -1 0 0 0 0];

internalField   uniform 6e-5;

boundaryField
{
    shaft0
    {
        type            fixedValue;
        value           uniform 0;
    }
    singleBlade
    {
        type            fixedValue;
        value           uniform 0;
    }
    blades0
    {
        type            fixedValue;
        value           uniform 0;
    }
    cap0
    {
        type            fixedValue;
        value           uniform 0;
    }
    baffle
    {
        type            fixedValue;
        value           uniform 0;
    }
    plate
    {
        type            fixedValue;
        value           uniform 0;
    }
    casing
    {
        type            fixedValue;
        value           uniform 0;
    }
    inlet
    {
        type            fixedValue;
        value           $internalField;
    }
    outlet
    {
        type            inletOutlet;
        inletValue      $internalField;
        value           $internalField;
    }
    tunnel
    {
        type            fixedValue;
        value           uniform 0;
    }
    symmetry { type symmetryPlane; }
    #include "include/ami"
}


// ************************************************************************* //
