/*--------------------------------*- C++ -*----------------------------------*\
| =========                 |                                                 |
| \\      /  F ield         | OpenFOAM: The Open Source CFD Toolbox           |
|  \\    /   O peration     | Version:  1.5-dev                               |
|   \\  /    A nd           | Revision: exported                              |
|    \\/     M anipulation  | Web:      http://www.OpenFOAM.org               |
\*---------------------------------------------------------------------------*/
FoamFile
{
    version     2.0;
    format      ascii;
    class       volScalarField;
    location    "0";
    object      p;
}
// * * * * * * * * * * * * * * * * * * * * * * * * * * * * * * * * * * * * * //

dimensions      [0 2 -2 0 0 0 0];

internalField   uniform 0;

boundaryField
{
    shaft0 {	type	zeroGradient; }
    singleBlade {	type	zeroGradient; }
    blades0 {	type	zeroGradient; }
    cap0 {	type	zeroGradient; }
    baffle {	type	zeroGradient; }
    plate {     type    zeroGradient; }
    casing {	type	zeroGradient; }
    inlet {	type	zeroGradient; }
    outlet
    {
        type fixedValue;
        value uniform 0;
    }
    tunnel {	type	zeroGradient; }
    symmetry { type symmetryPlane; }
    #include "include/ami"
}


// ************************************************************************* //
