/*--------------------------------*- C++ -*----------------------------------*\
| =========                 |                                                 |
| \\      /  F ield         | OpenFOAM: The Open Source CFD Toolbox           |
|  \\    /   O peration     | Version:  2.3.1                                 |
|   \\  /    A nd           | Web:      www.OpenFOAM.org                      |
|    \\/     M anipulation  |                                                 |
\*---------------------------------------------------------------------------*/
FoamFile
{
    version     2.0;
    format      ascii;
    class       dictionary;
    location    "system";
    object      fvSchemes;
}
// * * * * * * * * * * * * * * * * * * * * * * * * * * * * * * * * * * * * * //

d2dt2Schemes
{
    default         steadyState;
}

ddtSchemes
{
    default         steadyState;
}

gradSchemes
{
    // default         leastSquares;
    // grad(D)         leastSquares;
    // grad(T)         leastSquares;
    default         Gauss cubic;
}

divSchemes
{
    // default         Gauss linear;
    // div(sigmaD)     Gauss linear;
    default         Gauss cubic;
}

laplacianSchemes
{
    default         Gauss linear uncorrected;
    // laplacian(DD,D) Gauss linear corrected;
    // laplacian(DT,T) Gauss linear corrected;
}

interpolationSchemes
{
    default         cubic;
    // default         linear;
}

snGradSchemes
{
    default         uncorrected;
    // default         none;
}

fluxRequired
{
    default         no;
    D               yes;
    T               no;
}


// ************************************************************************* //
