/*--------------------------------*- C++ -*----------------------------------*\
| =========                 |                                                 |
| \\      /  F ield         | OpenFOAM: The Open Source CFD Toolbox           |
|  \\    /   O peration     | Version:  2.1.1                                 |
|   \\  /    A nd           | Web:      www.OpenFOAM.org                      |
|    \\/     M anipulation  |                                                 |
\*---------------------------------------------------------------------------*/
FoamFile
{
    version     2.0;
    format      ascii;
    class       dictionary;
    object      fvSchemes;
}
// * * * * * * * * * * * * * * * * * * * * * * * * * * * * * * * * * * * * * //

ddtSchemes
{
    default Euler;
}

gradSchemes
{
    default         Gauss linear;
    grad(p)         Gauss linear;
    grad(U)         Gauss linear;
}

divSchemes
{
    default         none;//Gauss linearUpwind leastSquares;
    //div(phi,U)	Gauss linearUpwind grad(U);
    div(phi,U)		Gauss upwind;
	//div(phi,U)      Gauss linearUpwind leastSquares;//upwind;//linearUpwind grad(U);
    div(phi,nuTilda)      Gauss upwind;//linearUpwind leastSquares;//upwind;//limitedLinear 1;
    div(phi,k)      Gauss upwind;//linearUpwind leastSquares;//upwind;//limitedLinear 1;
    div(phi,omega)  Gauss upwind;//linearUpwind leastSquares;//upwind;//limitedLinear 1;
    div(phi,epsilon) Gauss upwind;//linearUpwind leastSquares;//upwind;
    div((nuEff*dev(T(grad(U))))) Gauss linear;
}

laplacianSchemes
{
    default         Gauss linear limited 1;
}

interpolationSchemes
{
    default         linear;
}

snGradSchemes
{
    default         corrected;
}

fluxRequired
{
    default         no;
    pcorr;
    p;
}

// ************************************************************************* //
